Circuit: * C:\Users\Tilman Preuschoff\OneDrive\Dokumente\Elektronikprojekte\PFD_HMC439QS16G\spice\Draft1.asc


Date: Thu Nov 19 21:38:03 2020
Total elapsed time: 0.031 seconds.

tnom = 27
temp = 27
method = trap
totiter = 0
traniter = 0
tranpoints = 0
accept = 0
rejected = 0
matrix size = 3
fillins = 1
solver = Normal

