Circuit: * C:\Users\Scope\Documents\GitHub\HMC439_Phase-Frequency_Detector\spice\Rev1.1.asc

Direct Newton iteration failed to find .op point.  (Use ".option noopiter" to skip.)
Starting Gmin stepping
Gmin = 10
vernier = 0.5
vernier = 0.25
Gmin = 2.62144
vernier = 0.125
vernier = 0.0625
vernier = 0.03125
Gmin = 2.37322
vernier = 0.0416667
vernier = 0.0555555
Gmin = 2.13597
vernier = 0.074074
Gmin = 1.81059
vernier = 0.0987653
vernier = 0.131687
Gmin = 1.37402
vernier = 0.175583
vernier = 0.0877914
vernier = 0.0438957
Gmin = 1.0845
vernier = 0.0219478
vernier = 0.0109739
Gmin = 1.04949
vernier = 0.00548696
vernier = 0.00731595
Gmin = 1.03474
vernier = 0.00365797
vernier = 0.0048773
vernier = 0.00243865
Gmin = 1.03065
vernier = 0.00325153
vernier = 0.00162576
Gmin = 1.02667
vernier = 0.00216769
vernier = 0.00108384
Gmin = 1.02362
vernier = 0.00144512
vernier = 0.000722562
Gmin = 1.02122
vernier = 0.000963415
vernier = 0.00128455
vernier = 0.000642277
Gmin = 1.01938
vernier = 0.000856369
vernier = 0.000428184
Gmin = 1.01801
vernier = 0.000570912
Gmin = 1.01671
vernier = 0.000761216
vernier = 0.000570912
vernier = 0.000761216
vernier = 0.000570912
Gmin = 1.01584
vernier = 0.000428184
vernier = 0.000570912
vernier = 0.000428184
Gmin = 1.01518
vernier = 0.000570912
vernier = 0.000428184
Gmin = 1.01431
Gmin = 0
Gmin stepping failed

Starting source stepping with srcstepmethod=0
Source Step = 3.0303%
Source Step = 33.3333%
Source Step = 63.6364%
Source Step = 93.9394%
Source stepping succeeded in finding the operating point.


Date: Wed Mar 17 13:01:55 2021
Total elapsed time: 5.775 seconds.

tnom = 27
temp = 27
method = trap
totiter = 10281
traniter = 0
tranpoints = 0
accept = 0
rejected = 0
matrix size = 517
fillins = 1277
solver = Normal
Matrix Compiler1:    5193 opcodes
Matrix Compiler2: 59.82 KB object code size  7.9/10.1/[5.2]

